/*--------------------------------*- C++ -*----------------------------------*\
| =========                 |                                                 |
| \\      /  F ield         | OpenFOAM: The Open Source CFD Toolbox           |
|  \\    /   O peration     | Version:  2.3.0                                 |
|   \\  /    A nd           | Web:      www.OpenFOAM.org                      |
|    \\/     M anipulation  |                                                 |
\*---------------------------------------------------------------------------*/
FoamFile
{
    version     2.0;
    format      ascii;
    class       dictionary;
    location    "system";
    object      fvSchemes;
}
// * * * * * * * * * * * * * * * * * * * * * * * * * * * * * * * * * * * * * //

ddtSchemes
{
    default         Euler;
}

interpolationSchemes
{
    default         linear;
}

divSchemes
{
    default         none;
    div(phiv,rho)   Gauss limitedLinear 1;
    div(phi,U)      Gauss limitedLinearV 1;
    div(phiv,omega) Gauss limitedLinear 1;
    div(phiv,k)     Gauss limitedLinear 1;
    div((muEff*dev(T(grad(U))))) Gauss linear;
}

gradSchemes
{
    default         Gauss linear;
}

laplacianSchemes
{
    default         Gauss linear corrected;
}

snGradSchemes
{
    default         corrected;
}

fluxRequired
{
    default         none;
    p               ;
    rho             ;
}


// ************************************************************************* //
