/*--------------------------------*- C++ -*----------------------------------*\
| =========                 |                                                 |
| \\      /  F ield         | OpenFOAM: The Open Source CFD Toolbox           |
|  \\    /   O peration     | Version:  2.3.x                                 |
|   \\  /    A nd           | Web:      www.OpenFOAM.org                      |
|    \\/     M anipulation  |                                                 |
\*---------------------------------------------------------------------------*/
FoamFile
{
    version     2.0;
    format      ascii;
    class       polyBoundaryMesh;
    location    "constant/polyMesh";
    object      boundary;
}
// * * * * * * * * * * * * * * * * * * * * * * * * * * * * * * * * * * * * * //

4
(
    inlet
    {
        type            patch;
        nFaces          51;
        startFace       15151;
    }
    outlet
    {
        type            patch;
        nFaces          51;
        startFace       15202;
    }
    walls
    {
        type            wall;
        inGroups        1(wall);
        nFaces          436;
        startFace       15253;
    }
    frontBack
    {
        type            empty;
        inGroups        1(empty);
        nFaces          15420;
        startFace       15689;
    }
)

// ************************************************************************* //
